<?xml version="1.0"?>

<!--
// Copyright (C) 2011 Christoph Sommer <sommer@ccs-labs.org>
//
// Documentation for these modules is at http://veins.car2x.org/
//
// SPDX-License-Identifier: (GPL-2.0-or-later OR CC-BY-SA-4.0)
//
// This program is free software; you can redistribute it and/or modify
// it under the terms of the GNU General Public License as published by
// the Free Software Foundation; either version 2 of the License, or
// (at your option) any later version.
//
// This program is distributed in the hope that it will be useful,
// but WITHOUT ANY WARRANTY; without even the implied warranty of
// MERCHANTABILITY or FITNESS FOR A PARTICULAR PURPOSE.  See the
// GNU General Public License for more details.
//
// You should have received a copy of the GNU General Public License
// along with this program; if not, write to the Free Software
// Foundation, Inc., 59 Temple Place, Suite 330, Boston, MA  02111-1307  USA
//
// -
//
// At your option, you can also redistribute and/or modify this file
// under a
// Creative Commons Attribution-ShareAlike 4.0 International License.
//
// You should have received a copy of the license along with this
// work.  If not, see <http://creativecommons.org/licenses/by-sa/4.0/>.
-->

<!--
194 Cars leaving the Computer Science Building and campus of the University of Erlangen-Nuremberg
-->

<routes>
    <vType id="vtype0" accel="2.6" decel="4.5" sigma="0.5" length="2.5" minGap="2.5" maxSpeed="14" color="1,1,0"/>

    <flow id="flow_0" type="vtype0" begin="0" period="5" number="30" color="1,0,0" 
          from="-3013106#0" to="-32282774" 
          via="-3998612#2 -3998612#1 -3998612#0 3998613#0 3998613#1 3998613#2 -31353573#1 -31353573#0 4686970#0 25472257 -30357194"/>

    <flow id="flow_1" type="vtype0" begin="2" period="6" number="30" color="0,1,0" 
          from="-3013106#0" to="-31241835#0" 
          via="-10573414#1 4047378 4006724#1 4872369 4006725#1 3998645#0 3998645#1 3998645#2 30350450#1 30350450#2 4006702#0 31255203#0 31255203#1 31241838#0 31241838#1 -31241816#0 -31241855#0 -31241834#1 -31241834#0 -31241835#1"/>

    <flow id="flow_2" type="vtype0" begin="4" period="7" number="30" color="0,0,1" 
          from="4006703#0" to="-15259223" 
          via="4006703#1 28269598 -4006702#2 -4006702#1 -4006702#0 4319352#1 44069041#0 44069041#1 4400949 31982182#0 4047241 4797872 4797871"/>

    <flow id="flow_3" type="vtype0" begin="1" period="5" number="30" color="1,0,1" 
          from="15259223" to="-125685391" 
          via="4006668 126606716 113939242#0 113939242#1 -25398494#0 -31401017#2 -8402998#3 -29900564#0 -4006688#4 -4006688#3 -4006688#2 10425130 4006688#4 -8403001 4006687 -29900561#1 9643180 -8402998#1 -8402998#0 29900565#3 -32302591#5 -32302591#4 -32302591#3 -32302591#2 -32302591#1 -32302591#0"/>

    <flow id="flow_4" type="vtype0" begin="3" period="8" number="30" color="0,1,1" 
          from="-4006672" to="-31241835#0" 
          via="32302591#0 32302591#1 32302591#2 32302591#3 32302591#4 32302591#5 33174302#0 33174302#1 4686970#0 25472257 -30357194 3998612#0 3998612#1 3998643#0 -4006726#0 3998615#1 3998643#2 30350450#2 4006702#0 31255203#0 -31241851#2 -31241851#1 -31241851#0 -31241816#1 -31241838#1 -31241853#1 -31241855#1 -31241855#0 -31241834#1 -31241834#0 -31241835#1"/>

</routes>