<?xml version="1.0" encoding="UTF-8"?>

<!-- generated on 2026-01-04 17:40:23 by Eclipse SUMO netedit Version 1.20.0
-->

<routes xmlns:xsi="http://www.w3.org/2001/XMLSchema-instance" xsi:noNamespaceSchemaLocation="http://sumo.dlr.de/xsd/routes_file.xsd">
    <!-- Vehicles, persons and containers (sorted by depart) -->
    <trip id="t_0" depart="0.00" from="-3013106#0" to="-32282774" via="-3998612#2 -3998612#1 -3998612#0 3998613#0 3998613#1 3998613#2 -31353573#1 -31353573#0 4686970#0 25472257 -30357194"/>
    <trip id="t_1" depart="0.00" from="-3013106#0" to="-31241835#0" via="-10573414#1 4047378 4006724#1 4872369 4006725#1 3998645#0 3998645#1 3998645#2 30350450#1 30350450#2 4006702#0 31255203#0 31255203#1 31241838#0 31241838#1 -31241816#0 -31241855#0 -31241834#1 -31241834#0 -31241835#1"/>
    <trip id="t_2" depart="0.00" from="4006703#0" to="-15259223" via="4006703#1 28269598 -4006702#2 -4006702#1 -4006702#0 4319352#1 44069041#0 44069041#1 4400949 31982182#0 4047241 4797872 4797871"/>
    <trip id="t_3" depart="0.00" from="15259223" to="-125685391" via="4006668 126606716 113939242#0 113939242#1 -25398494#0 -31401017#2 -8402998#3 -29900564#0 -4006688#4 -4006688#3 -4006688#2 10425130 4006688#4 -8403001 4006687 -29900561#1 9643180 -8402998#1 -8402998#0 29900565#3 -32302591#5 -32302591#4 -32302591#3 -32302591#2 -32302591#1 -32302591#0"/>
    <trip id="t_4" depart="0.00" from="-4006672" to="-31241835#0" via="32302591#0 32302591#1 32302591#2 32302591#3 32302591#4 32302591#5 33174302#0 33174302#1 4686970#0 25472257 -30357194 3998612#0 3998612#1 3998643#0 -4006726#0 3998615#1 3998643#2 30350450#2 4006702#0 31255203#0 -31241851#2 -31241851#1 -31241851#0 -31241816#1 -31241838#1 -31241853#1 -31241855#1 -31241855#0 -31241834#1 -31241834#0 -31241835#1"/>
</routes>
